version 2
1
2
.dc VBT2 0 10 100m{return}.kicad adjustpaths{return}.save all{return}.probe alli
1
1
V(Net-_Q1-C_)
 
