version 2
1
2
.dc VBT1 0 3 100m{return}.kicad adjustpaths{return}.save all{return}.probe alli
1
1
V(Net-_Q1-C_)
 
